 xtb: 6.7.1 (30c6303)
          06292606183D

 48 52  0     0  0            999 V2000
   -1.7100    0.5049    2.4952 O   0  0  0  0  0  0  0  0  0  0  0  0
   -0.9695    0.1162    1.5976 C   0  0  0  0  0  0  0  0  0  0  0  0
    0.2712    0.8738    1.3463 C   0  0  0  0  0  0  0  0  0  0  0  0
    0.5434    2.1449    1.8029 C   0  0  0  0  0  0  0  0  0  0  0  0
    1.8636    2.4333    1.4298 C   0  0  0  0  0  0  0  0  0  0  0  0
    2.3263    1.3114    0.7759 C   0  0  0  0  0  0  0  0  0  0  0  0
    3.5968    1.0345    0.1909 C   0  0  0  0  0  0  0  0  0  0  0  0
    4.5961    1.8414    0.1899 N   0  0  0  0  0  0  0  0  0  0  0  0
    5.6802    1.3126   -0.4352 C   0  0  0  0  0  0  0  0  0  0  0  0
    6.9154    1.9375   -0.5979 C   0  0  0  0  0  0  0  0  0  0  0  0
    7.9202    1.2639   -1.2569 C   0  0  0  0  0  0  0  0  0  0  0  0
    7.7186   -0.0217   -1.7580 C   0  0  0  0  0  0  0  0  0  0  0  0
    6.5041   -0.6622   -1.6101 C   0  0  0  0  0  0  0  0  0  0  0  0
    5.4888    0.0074   -0.9491 C   0  0  0  0  0  0  0  0  0  0  0  0
    3.8725   -0.5282   -0.6082 S   0  0  0  0  0  0  0  0  0  0  0  0
    1.3597    0.3708    0.7250 O   0  0  0  0  0  0  0  0  0  0  0  0
   -1.2555   -0.9808    0.8629 N   0  0  0  0  0  0  0  0  0  0  0  0
   -0.6575   -1.3694   -0.3920 C   0  0  0  0  0  0  0  0  0  0  0  0
   -1.6960   -1.2158   -1.5040 C   0  0  0  0  0  0  0  0  0  0  0  0
   -2.9005   -2.1072   -1.2208 C   0  0  0  0  0  0  0  0  0  0  0  0
   -3.4903   -1.8933    0.1850 C   0  0  0  0  0  0  0  0  0  0  0  0
   -4.4219   -0.7982    0.2589 N   0  0  0  0  0  0  0  0  0  0  0  0
   -4.1106    0.6124    0.3305 C   0  0  0  0  0  0  0  0  0  0  0  0
   -5.4765    1.2544    0.6316 C   0  0  0  0  0  0  0  0  0  0  0  0
   -6.3992    0.1814    0.3425 N   0  0  0  0  0  0  0  0  0  0  0  0
   -5.7672   -1.0340    0.3006 C   0  0  0  0  0  0  0  0  0  0  0  0
   -6.2995   -2.1208    0.2677 O   0  0  0  0  0  0  0  0  0  0  0  0
   -2.3790   -1.8141    1.2440 C   0  0  0  0  0  0  0  0  0  0  0  0
   -0.1392    2.7718    2.3381 H   0  0  0  0  0  0  0  0  0  0  0  0
    2.4222    3.3277    1.6087 H   0  0  0  0  0  0  0  0  0  0  0  0
    7.0582    2.9310   -0.2049 H   0  0  0  0  0  0  0  0  0  0  0  0
    8.8816    1.7367   -1.3888 H   0  0  0  0  0  0  0  0  0  0  0  0
    8.5245   -0.5256   -2.2695 H   0  0  0  0  0  0  0  0  0  0  0  0
    6.3450   -1.6570   -1.9959 H   0  0  0  0  0  0  0  0  0  0  0  0
    0.2184   -0.7646   -0.6082 H   0  0  0  0  0  0  0  0  0  0  0  0
   -0.3434   -2.4174   -0.3207 H   0  0  0  0  0  0  0  0  0  0  0  0
   -1.9989   -0.1694   -1.5636 H   0  0  0  0  0  0  0  0  0  0  0  0
   -1.2472   -1.4926   -2.4593 H   0  0  0  0  0  0  0  0  0  0  0  0
   -3.6854   -1.9369   -1.9587 H   0  0  0  0  0  0  0  0  0  0  0  0
   -2.5896   -3.1511   -1.3010 H   0  0  0  0  0  0  0  0  0  0  0  0
   -4.1139   -2.7672    0.4184 H   0  0  0  0  0  0  0  0  0  0  0  0
   -3.7109    0.9737   -0.6249 H   0  0  0  0  0  0  0  0  0  0  0  0
   -3.3901    0.8205    1.1237 H   0  0  0  0  0  0  0  0  0  0  0  0
   -5.5419    1.5746    1.6792 H   0  0  0  0  0  0  0  0  0  0  0  0
   -5.6762    2.1180   -0.0082 H   0  0  0  0  0  0  0  0  0  0  0  0
   -7.3574    0.2277    0.6429 H   0  0  0  0  0  0  0  0  0  0  0  0
   -1.9979   -2.8280    1.4115 H   0  0  0  0  0  0  0  0  0  0  0  0
   -2.7817   -1.4269    2.1816 H   0  0  0  0  0  0  0  0  0  0  0  0
  1  2  2  0  0  0  0
  2  3  1  0  0  0  0
  3  4  4  0  0  0  0
  4  5  4  0  0  0  0
  5  6  4  0  0  0  0
  6  7  1  0  0  0  0
  7  8  2  0  0  0  0
  8  9  4  0  0  0  0
  9 10  4  0  0  0  0
 10 11  4  0  0  0  0
 11 12  4  0  0  0  0
 12 13  4  0  0  0  0
  9 14  4  0  0  0  0
 13 14  4  0  0  0  0
  7 15  1  0  0  0  0
 14 15  1  0  0  0  0
  3 16  1  0  0  0  0
  6 16  1  0  0  0  0
  2 17  4  0  0  0  0
 17 18  1  0  0  0  0
 18 19  1  0  0  0  0
 19 20  1  0  0  0  0
 20 21  1  0  0  0  0
 21 22  1  0  0  0  0
 22 23  1  0  0  0  0
 23 24  1  0  0  0  0
 24 25  1  0  0  0  0
 22 26  1  0  0  0  0
 25 26  1  0  0  0  0
 26 27  2  0  0  0  0
 17 28  1  0  0  0  0
 21 28  1  0  0  0  0
  4 29  1  0  0  0  0
  5 30  1  0  0  0  0
 10 31  1  0  0  0  0
 11 32  1  0  0  0  0
 12 33  1  0  0  0  0
 13 34  1  0  0  0  0
 18 35  1  0  0  0  0
 18 36  1  0  0  0  0
 19 37  1  0  0  0  0
 19 38  1  0  0  0  0
 20 39  1  0  0  0  0
 20 40  1  0  0  0  0
 21 41  1  0  0  0  0
 23 42  1  0  0  0  0
 23 43  1  0  0  0  0
 24 44  1  0  0  0  0
 24 45  1  0  0  0  0
 25 46  1  0  0  0  0
 28 47  1  0  0  0  0
 28 48  1  0  0  0  0
M  END
